16

C         -3.58266        0.05221       -0.08521
C         -3.65629       -1.27783        0.09968
C         -2.28884        0.78583       -0.24821
C         -1.06093       -0.02819        0.16295
H         -2.31884        1.70308        0.35123
H         -2.19884        1.09501       -1.29705
C         -1.14351       -1.49393       -0.25606
H         -0.93885        0.02763        1.25252
H         -0.16402        0.42687       -0.27377
C         -2.45637       -2.17167        0.14449
H         -0.30505       -2.04669        0.18453
H         -1.02002       -1.56219       -1.34468
H         -2.36870       -2.57520        1.16082
H         -2.62545       -3.02741       -0.52000
H         -4.49649        0.63657       -0.11967
H         -4.62859       -1.74407        0.22277
