16

C          0.55360       -0.35268        1.43457
C          0.55360       -0.35268       -1.44001
C         -0.20699       -1.24490        0.70087
C         -0.20699       -1.24490       -0.70631
C         -0.20699        1.65574        0.69028
C         -0.20699        1.65574       -0.69572
H          0.44190       -0.30262        2.51496
H          1.51423       -0.01149        1.06596
H          0.44190       -0.30262       -2.52039
H          1.51423       -0.01149       -1.07139
H         -0.98639       -1.80957        1.21057
H         -0.98639       -1.80957       -1.21601
H          0.57969        2.17195       -1.23853
H          0.57969        2.17195        1.23310
H         -1.13728        1.53255       -1.23863
H         -1.13728        1.53255        1.23320
